REMARK  Name = C:\Users\samar\Documents\dockingwithspdspikeproteincomplexandglamoraitarget\frogGlamorpdb.pdb
REMARK  11 active torsions:
REMARK  status: ('A' for Active; 'I' for Inactive)
REMARK    1  A    between atoms: C1_1  and  C2_2
REMARK    2  A    between atoms: C2_2  and  O1_3
REMARK    3  A    between atoms: C2_2  and  N1_4
REMARK    4  A    between atoms: N2_7  and  S1_8
REMARK    5  A    between atoms: S1_8  and  O2_9
REMARK    6  A    between atoms: S1_8  and  O3_10
REMARK    7  A    between atoms: S1_8  and  C5_11
REMARK    8  A    between atoms: C11_18  and  O4_19
REMARK    9  A    between atoms: C14_23  and  O5_24
REMARK   10  A    between atoms: C16_26  and  O6_27
REMARK   11  A    between atoms: C17_28  and  O7_29
REMARK                            x       y       z     vdW  Elec       q    Type
REMARK                         _______ _______ _______ _____ _____    ______ ____
ROOT
ATOM     11  C5  <O> A   1      -2.618  -0.730  -0.072  0.00  0.00    +0.000 C 
ATOM     12  C6  <O> A   1      -3.207  -1.030  -1.460  0.00  0.00    +0.000 C 
ATOM     13  C7  <O> A   1      -4.369  -2.021  -1.352  0.00  0.00    +0.000 C 
ATOM     14  C8  <O> A   1      -4.850  -2.500  -2.733  0.00  0.00    +0.000 C 
ATOM     15  F1  <O> A   1      -3.799  -3.106  -3.393  0.00  0.00    +0.000 F 
ATOM     16  C9  <O> A   1      -6.003  -3.506  -2.587  0.00  0.00    +0.000 C 
ATOM     17  C10 <O> A   1      -7.151  -2.947  -1.734  0.00  0.00    +0.000 C 
ATOM     18  C11 <O> A   1      -6.650  -2.423  -0.381  0.00  0.00    +0.000 C 
ATOM     20  C12 <O> A   1      -5.531  -1.377  -0.554  0.00  0.00    +0.000 C 
ATOM     21  F2  <O> A   1      -6.044  -0.363  -1.338  0.00  0.00    +0.000 F 
ATOM     22  C13 <O> A   1      -5.070  -0.739   0.750  0.00  0.00    +0.000 A 
ATOM     23  C14 <O> A   1      -6.002  -0.458   1.775  0.00  0.00    +0.000 A 
ATOM     25  C15 <O> A   1      -5.588   0.119   2.982  0.00  0.00    +0.000 A 
ATOM     26  C16 <O> A   1      -4.239   0.424   3.187  0.00  0.00    +0.000 A 
ATOM     28  C17 <O> A   1      -3.295   0.136   2.193  0.00  0.00    +0.000 A 
ATOM     30  C18 <O> A   1      -3.692  -0.471   0.985  0.00  0.00    +0.000 A 
ENDROOT
BRANCH  18  19
ATOM     19  O4  <O> A   1      -6.164  -3.478   0.355  0.00  0.00    +0.000 OA
ATOM     36  H22 <O> A   1      -5.845  -3.155   1.212  0.00  0.00    +0.000 HD
ENDBRANCH  18  19
BRANCH  23  24
ATOM     24  O5  <O> A   1      -7.251  -0.743   1.588  0.00  0.00    +0.000 OA
ATOM     37  H23 <O> A   1      -7.760  -0.494   2.375  0.00  0.00    +0.000 HD
ENDBRANCH  23  24
BRANCH  26  27
ATOM     27  O6  <O> A   1      -3.861   0.970   4.299  0.00  0.00    +0.000 OA
ATOM     38  H24 <O> A   1      -2.901   1.114   4.279  0.00  0.00    +0.000 HD
ENDBRANCH  26  27
BRANCH  28  29
ATOM     29  O7  <O> A   1      -2.052   0.434   2.391  0.00  0.00    +0.000 OA
ATOM     39  H25 <O> A   1      -1.530   0.174   1.615  0.00  0.00    +0.000 HD
ENDBRANCH  28  29
BRANCH  11   8
ATOM      8  S1  <O> A   1      -1.586   0.705  -0.195  0.00  0.00    +0.000 S 
BRANCH   8   7
ATOM      4  N1  <O> A   1       1.030   1.528  -3.610  0.00  0.00    +0.000 NA
ATOM      5  C3  <O> A   1      -0.007   2.534  -3.356  0.00  0.00    +0.000 C 
ATOM      6  C4  <O> A   1      -0.612   2.346  -1.948  0.00  0.00    +0.000 C 
ATOM      7  N2  <O> A   1      -1.107   0.908  -1.763  0.00  0.00    +0.000 NA
ATOM     31  C19 <O> A   1      -0.012  -0.115  -2.081  0.00  0.00    +0.000 C 
ATOM     32  C20 <O> A   1       0.549   0.152  -3.487  0.00  0.00    +0.000 C 
BRANCH   4   2
ATOM      1  C1  <O> A   1       0.472   1.319  -5.975  0.00  0.00    +0.000 C 
ATOM      2  C2  <O> A   1       1.541   1.722  -4.970  0.00  0.00    +0.000 C 
BRANCH   2   3
ATOM      3  O1  <O> A   1       2.707   0.912  -5.162  0.00  0.00    +0.000 OA
ATOM     33  H5  <O> A   1       3.388   1.168  -4.521  0.00  0.00    +0.000 HD
ENDBRANCH   2   3
ENDBRANCH   4   2
ENDBRANCH   8   7
BRANCH   8   9
ATOM      9  O2  <O> A   1      -2.419   2.018   0.293  0.00  0.00    +0.000 OA
ATOM     34  H10 <O> A   1      -3.200   2.132  -0.270  0.00  0.00    +0.000 HD
ENDBRANCH   8   9
BRANCH   8  10
ATOM     10  O3  <O> A   1      -0.274   0.512   0.753  0.00  0.00    +0.000 OA
ATOM     35  H11 <O> A   1       0.224  -0.269   0.463  0.00  0.00    +0.000 HD
ENDBRANCH   8  10
ENDBRANCH  11   8
TORSDOF 10
