REMARK  Name = 
REMARK  11 active torsions:
REMARK  status: ('A' for Active; 'I' for Inactive)
REMARK    1  A    between atoms: C1_1  and  C2_2
REMARK    2  A    between atoms: C2_2  and  O1_3
REMARK    3  A    between atoms: C2_2  and  N1_4
REMARK    4  A    between atoms: N2_7  and  S1_8
REMARK    5  A    between atoms: S1_8  and  O2_9
REMARK    6  A    between atoms: S1_8  and  O3_10
REMARK    7  A    between atoms: S1_8  and  C5_11
REMARK    8  A    between atoms: C11_18  and  O4_19
REMARK    9  A    between atoms: C14_23  and  O5_24
REMARK   10  A    between atoms: C16_26  and  O6_27
REMARK   11  A    between atoms: C17_28  and  O7_29
REMARK                            x       y       z     vdW  Elec       q    Type
REMARK                         _______ _______ _______ _____ _____    ______ ____
ROOT
ATOM     11  C5  <O> A   1       1.786   0.015   1.687  0.00  0.00    +0.000 C 
ATOM     12  C6  <O> A   1       3.067  -0.453   0.977  0.00  0.00    +0.000 C 
ATOM     13  C7  <O> A   1       4.123  -0.889   1.996  0.00  0.00    +0.000 C 
ATOM     14  C8  <O> A   1       5.484  -1.170   1.335  0.00  0.00    +0.000 C 
ATOM     15  F1  <O> A   1       5.919  -0.027   0.694  0.00  0.00    +0.000 F 
ATOM     16  C9  <O> A   1       6.523  -1.585   2.389  0.00  0.00    +0.000 C 
ATOM     17  C10 <O> A   1       6.038  -2.765   3.243  0.00  0.00    +0.000 C 
ATOM     18  C11 <O> A   1       4.655  -2.495   3.853  0.00  0.00    +0.000 C 
ATOM     20  C12 <O> A   1       3.617  -2.131   2.773  0.00  0.00    +0.000 C 
ATOM     21  F2  <O> A   1       3.585  -3.179   1.875  0.00  0.00    +0.000 F 
ATOM     22  C13 <O> A   1       2.200  -1.960   3.306  0.00  0.00    +0.000 A 
ATOM     23  C14 <O> A   1       1.723  -2.793   4.343  0.00  0.00    +0.000 A 
ATOM     25  C15 <O> A   1       0.425  -2.638   4.847  0.00  0.00    +0.000 A 
ATOM     26  C16 <O> A   1      -0.415  -1.648   4.328  0.00  0.00    +0.000 A 
ATOM     28  C17 <O> A   1       0.045  -0.798   3.314  0.00  0.00    +0.000 A 
ATOM     30  C18 <O> A   1       1.357  -0.923   2.816  0.00  0.00    +0.000 A 
ENDROOT
BRANCH  18  19
ATOM     19  O4  <O> A   1       4.756  -1.452   4.743  0.00  0.00    +0.000 OA
ATOM     36  H22 <O> A   1       3.887  -1.274   5.133  0.00  0.00    +0.000 HD
ENDBRANCH  18  19
BRANCH  23  24
ATOM     24  O5  <O> A   1       2.501  -3.708   4.827  0.00  0.00    +0.000 OA
ATOM     37  H23 <O> A   1       2.034  -4.191   5.526  0.00  0.00    +0.000 HD
ENDBRANCH  23  24
BRANCH  26  27
ATOM     27  O6  <O> A   1      -1.619  -1.516   4.787  0.00  0.00    +0.000 OA
ATOM     38  H24 <O> A   1      -2.064  -0.789   4.322  0.00  0.00    +0.000 HD
ENDBRANCH  26  27
BRANCH  28  29
ATOM     29  O7  <O> A   1      -0.747   0.105   2.834  0.00  0.00    +0.000 OA
ATOM     39  H25 <O> A   1      -0.285   0.607   2.145  0.00  0.00    +0.000 HD
ENDBRANCH  28  29
BRANCH  11   8
ATOM      8  S1  <O> A   1       0.479   0.102   0.494  0.00  0.00    +0.000 S 
BRANCH   8   7
ATOM      4  N1  <O> A   1       1.030   1.528  -3.610  0.00  0.00    +0.000 NA
ATOM      5  C3  <O> A   1       0.560   0.144  -3.483  0.00  0.00    +0.000 C 
ATOM      6  C4  <O> A   1       0.052  -0.128  -2.051  0.00  0.00    +0.000 C 
ATOM      7  N2  <O> A   1       1.123   0.244  -1.021  0.00  0.00    +0.000 NA
ATOM     31  C19 <O> A   1       1.622   1.679  -1.213  0.00  0.00    +0.000 C 
ATOM     32  C20 <O> A   1       2.091   1.872  -2.663  0.00  0.00    +0.000 C 
BRANCH   4   2
ATOM      1  C1  <O> A   1       0.472   1.319  -5.975  0.00  0.00    +0.000 C 
ATOM      2  C2  <O> A   1       1.541   1.722  -4.970  0.00  0.00    +0.000 C 
BRANCH   2   3
ATOM      3  O1  <O> A   1       2.707   0.912  -5.162  0.00  0.00    +0.000 OA
ATOM     33  H5  <O> A   1       3.389   1.169  -4.521  0.00  0.00    +0.000 HD
ENDBRANCH   2   3
ENDBRANCH   4   2
ENDBRANCH   8   7
BRANCH   8   9
ATOM      9  O2  <O> A   1      -0.423  -1.253   0.576  0.00  0.00    +0.000 OA
ATOM     34  H10 <O> A   1       0.134  -2.024   0.390  0.00  0.00    +0.000 HD
ENDBRANCH   8   9
BRANCH   8  10
ATOM     10  O3  <O> A   1      -0.458   1.399   0.810  0.00  0.00    +0.000 OA
ATOM     35  H11 <O> A   1       0.078   2.205   0.761  0.00  0.00    +0.000 HD
ENDBRANCH   8  10
ENDBRANCH  11   8
TORSDOF 10
