REMARK  Name = 
REMARK  11 active torsions:
REMARK  status: ('A' for Active; 'I' for Inactive)
REMARK    1  A    between atoms: C1_1  and  C2_2
REMARK    2  A    between atoms: C2_2  and  O1_3
REMARK    3  A    between atoms: C2_2  and  N1_4
REMARK    4  A    between atoms: N2_7  and  S1_8
REMARK    5  A    between atoms: S1_8  and  O2_9
REMARK    6  A    between atoms: S1_8  and  O3_10
REMARK    7  A    between atoms: S1_8  and  C5_11
REMARK    8  A    between atoms: C11_18  and  O4_19
REMARK    9  A    between atoms: C14_23  and  O5_24
REMARK   10  A    between atoms: C16_26  and  O6_27
REMARK   11  A    between atoms: C17_28  and  O7_29
REMARK                            x       y       z     vdW  Elec       q    Type
REMARK                         _______ _______ _______ _____ _____    ______ ____
ROOT
ATOM     11  C5  <O> A   1      -2.603   2.726   0.425  0.00  0.00    +0.000 C 
ATOM     12  C6  <O> A   1      -2.860   3.803  -0.642  0.00  0.00    +0.000 C 
ATOM     13  C7  <O> A   1      -4.136   4.586  -0.324  0.00  0.00    +0.000 C 
ATOM     14  C8  <O> A   1      -4.535   5.532  -1.471  0.00  0.00    +0.000 C 
ATOM     15  F1  <O> A   1      -4.734   4.790  -2.619  0.00  0.00    +0.000 F 
ATOM     16  C9  <O> A   1      -5.829   6.287  -1.127  0.00  0.00    +0.000 C 
ATOM     17  C10 <O> A   1      -5.727   7.018   0.219  0.00  0.00    +0.000 C 
ATOM     18  C11 <O> A   1      -5.277   6.077   1.345  0.00  0.00    +0.000 C 
ATOM     20  C12 <O> A   1      -3.951   5.370   1.000  0.00  0.00    +0.000 C 
ATOM     21  F2  <O> A   1      -3.019   6.359   0.754  0.00  0.00    +0.000 F 
ATOM     22  C13 <O> A   1      -3.396   4.507   2.126  0.00  0.00    +0.000 A 
ATOM     23  C14 <O> A   1      -3.525   4.921   3.471  0.00  0.00    +0.000 A 
ATOM     25  C15 <O> A   1      -3.026   4.130   4.515  0.00  0.00    +0.000 A 
ATOM     26  C16 <O> A   1      -2.396   2.914   4.234  0.00  0.00    +0.000 A 
ATOM     28  C17 <O> A   1      -2.275   2.476   2.909  0.00  0.00    +0.000 A 
ATOM     30  C18 <O> A   1      -2.796   3.246   1.851  0.00  0.00    +0.000 A 
ENDROOT
BRANCH  18  19
ATOM     19  O4  <O> A   1      -6.249   5.126   1.548  0.00  0.00    +0.000 OA
ATOM     36  H22 <O> A   1      -5.971   4.527   2.258  0.00  0.00    +0.000 HD
ENDBRANCH  18  19
BRANCH  23  24
ATOM     24  O5  <O> A   1      -4.112   6.044   3.733  0.00  0.00    +0.000 OA
ATOM     37  H23 <O> A   1      -4.123   6.187   4.692  0.00  0.00    +0.000 HD
ENDBRANCH  23  24
BRANCH  26  27
ATOM     27  O6  <O> A   1      -1.924   2.192   5.200  0.00  0.00    +0.000 OA
ATOM     38  H24 <O> A   1      -1.521   1.388   4.836  0.00  0.00    +0.000 HD
ENDBRANCH  26  27
BRANCH  28  29
ATOM     29  O7  <O> A   1      -1.678   1.355   2.663  0.00  0.00    +0.000 OA
ATOM     39  H25 <O> A   1      -1.676   1.194   1.706  0.00  0.00    +0.000 HD
ENDBRANCH  28  29
BRANCH  11   8
ATOM      8  S1  <O> A   1      -0.938   2.147   0.254  0.00  0.00    +0.000 S 
BRANCH   8   7
ATOM      4  N1  <O> A   1       1.030   1.528  -3.610  0.00  0.00    +0.000 NA
ATOM      5  C3  <O> A   1       1.669   2.513  -2.730  0.00  0.00    +0.000 C 
ATOM      6  C4  <O> A   1       1.131   2.382  -1.288  0.00  0.00    +0.000 C 
ATOM      7  N2  <O> A   1      -0.398   2.462  -1.276  0.00  0.00    +0.000 NA
ATOM     31  C19 <O> A   1      -1.028   1.452  -2.240  0.00  0.00    +0.000 C 
ATOM     32  C20 <O> A   1      -0.428   1.636  -3.643  0.00  0.00    +0.000 C 
BRANCH   4   2
ATOM      1  C1  <O> A   1       0.472   1.319  -5.975  0.00  0.00    +0.000 C 
ATOM      2  C2  <O> A   1       1.541   1.722  -4.970  0.00  0.00    +0.000 C 
BRANCH   2   3
ATOM      3  O1  <O> A   1       2.707   0.912  -5.162  0.00  0.00    +0.000 OA
ATOM     33  H5  <O> A   1       3.389   1.169  -4.521  0.00  0.00    +0.000 HD
ENDBRANCH   2   3
ENDBRANCH   4   2
ENDBRANCH   8   7
BRANCH   8   9
ATOM      9  O2  <O> A   1       0.017   2.907   1.334  0.00  0.00    +0.000 OA
ATOM     34  H10 <O> A   1      -0.011   3.863   1.174  0.00  0.00    +0.000 HD
ENDBRANCH   8   9
BRANCH   8  10
ATOM     10  O3  <O> A   1      -0.892   0.540   0.525  0.00  0.00    +0.000 OA
ATOM     35  H11 <O> A   1      -1.459   0.086  -0.118  0.00  0.00    +0.000 HD
ENDBRANCH   8  10
ENDBRANCH  11   8
TORSDOF 10
