REMARK  Name = 
REMARK  11 active torsions:
REMARK  status: ('A' for Active; 'I' for Inactive)
REMARK    1  A    between atoms: C1_1  and  C2_2
REMARK    2  A    between atoms: C2_2  and  O1_3
REMARK    3  A    between atoms: C2_2  and  N1_4
REMARK    4  A    between atoms: N2_7  and  S1_8
REMARK    5  A    between atoms: S1_8  and  O2_9
REMARK    6  A    between atoms: S1_8  and  O3_10
REMARK    7  A    between atoms: S1_8  and  C5_11
REMARK    8  A    between atoms: C11_18  and  O4_19
REMARK    9  A    between atoms: C14_23  and  O5_24
REMARK   10  A    between atoms: C16_26  and  O6_27
REMARK   11  A    between atoms: C17_28  and  O7_29
REMARK                            x       y       z     vdW  Elec       q    Type
REMARK                         _______ _______ _______ _____ _____    ______ ____
ROOT
ATOM     11  C5  <O> A   1      -1.758   3.370   0.834  0.00  0.00    +0.000 C 
ATOM     12  C6  <O> A   1      -1.609   4.614  -0.056  0.00  0.00    +0.000 C 
ATOM     13  C7  <O> A   1      -2.477   5.762   0.466  0.00  0.00    +0.000 C 
ATOM     14  C8  <O> A   1      -2.511   6.952  -0.509  0.00  0.00    +0.000 C 
ATOM     15  F1  <O> A   1      -3.009   6.526  -1.725  0.00  0.00    +0.000 F 
ATOM     16  C9  <O> A   1      -3.406   8.076   0.037  0.00  0.00    +0.000 C 
ATOM     17  C10 <O> A   1      -2.996   8.499   1.456  0.00  0.00    +0.000 C 
ATOM     18  C11 <O> A   1      -2.913   7.297   2.406  0.00  0.00    +0.000 C 
ATOM     20  C12 <O> A   1      -1.970   6.205   1.862  0.00  0.00    +0.000 C 
ATOM     21  F2  <O> A   1      -0.737   6.795   1.673  0.00  0.00    +0.000 F 
ATOM     22  C13 <O> A   1      -1.761   5.034   2.814  0.00  0.00    +0.000 A 
ATOM     23  C14 <O> A   1      -1.686   5.255   4.209  0.00  0.00    +0.000 A 
ATOM     25  C15 <O> A   1      -1.504   4.184   5.094  0.00  0.00    +0.000 A 
ATOM     26  C16 <O> A   1      -1.396   2.879   4.604  0.00  0.00    +0.000 A 
ATOM     28  C17 <O> A   1      -1.487   2.636   3.228  0.00  0.00    +0.000 A 
ATOM     30  C18 <O> A   1      -1.699   3.699   2.327  0.00  0.00    +0.000 A 
ENDROOT
BRANCH  18  19
ATOM     19  O4  <O> A   1      -4.171   6.763   2.562  0.00  0.00    +0.000 OA
ATOM     36  H22 <O> A   1      -4.127   6.002   3.161  0.00  0.00    +0.000 HD
ENDBRANCH  18  19
BRANCH  23  24
ATOM     24  O5  <O> A   1      -1.789   6.462   4.664  0.00  0.00    +0.000 OA
ATOM     37  H23 <O> A   1      -1.720   6.449   5.632  0.00  0.00    +0.000 HD
ENDBRANCH  23  24
BRANCH  26  27
ATOM     27  O6  <O> A   1      -1.214   1.894   5.424  0.00  0.00    +0.000 OA
ATOM     38  H24 <O> A   1      -1.161   1.063   4.925  0.00  0.00    +0.000 HD
ENDBRANCH  26  27
BRANCH  28  29
ATOM     29  O7  <O> A   1      -1.374   1.426   2.787  0.00  0.00    +0.000 OA
ATOM     39  H25 <O> A   1      -1.458   1.425   1.821  0.00  0.00    +0.000 HD
ENDBRANCH  28  29
BRANCH  11   8
ATOM      8  S1  <O> A   1      -0.449   2.240   0.451  0.00  0.00    +0.000 S 
BRANCH   8   7
ATOM      4  N1  <O> A   1       1.030   1.528  -3.610  0.00  0.00    +0.000 NA
ATOM      5  C3  <O> A   1       2.021   2.052  -2.663  0.00  0.00    +0.000 C 
ATOM      6  C4  <O> A   1       1.511   1.913  -1.212  0.00  0.00    +0.000 C 
ATOM      7  N2  <O> A   1       0.131   2.560  -1.063  0.00  0.00    +0.000 NA
ATOM     31  C19 <O> A   1      -0.863   2.023  -2.097  0.00  0.00    +0.000 C 
ATOM     32  C20 <O> A   1      -0.275   2.180  -3.507  0.00  0.00    +0.000 C 
BRANCH   4   2
ATOM      1  C1  <O> A   1       0.472   1.319  -5.975  0.00  0.00    +0.000 C 
ATOM      2  C2  <O> A   1       1.541   1.722  -4.970  0.00  0.00    +0.000 C 
BRANCH   2   3
ATOM      3  O1  <O> A   1       2.707   0.912  -5.162  0.00  0.00    +0.000 OA
ATOM     33  H5  <O> A   1       3.389   1.169  -4.521  0.00  0.00    +0.000 HD
ENDBRANCH   2   3
ENDBRANCH   4   2
ENDBRANCH   8   7
BRANCH   8   9
ATOM      9  O2  <O> A   1       0.752   2.410   1.539  0.00  0.00    +0.000 OA
ATOM     34  H10 <O> A   1       1.090   3.318   1.509  0.00  0.00    +0.000 HD
ENDBRANCH   8   9
BRANCH   8  10
ATOM     10  O3  <O> A   1      -1.017   0.714   0.503  0.00  0.00    +0.000 OA
ATOM     35  H11 <O> A   1      -1.731   0.612  -0.146  0.00  0.00    +0.000 HD
ENDBRANCH   8  10
ENDBRANCH  11   8
TORSDOF 10
