REMARK  Name = 
REMARK  11 active torsions:
REMARK  status: ('A' for Active; 'I' for Inactive)
REMARK    1  A    between atoms: C1_1  and  C2_2
REMARK    2  A    between atoms: C2_2  and  O1_3
REMARK    3  A    between atoms: C2_2  and  N1_4
REMARK    4  A    between atoms: N2_7  and  S1_8
REMARK    5  A    between atoms: S1_8  and  O2_9
REMARK    6  A    between atoms: S1_8  and  O3_10
REMARK    7  A    between atoms: S1_8  and  C5_11
REMARK    8  A    between atoms: C11_18  and  O4_19
REMARK    9  A    between atoms: C14_23  and  O5_24
REMARK   10  A    between atoms: C16_26  and  O6_27
REMARK   11  A    between atoms: C17_28  and  O7_29
REMARK                            x       y       z     vdW  Elec       q    Type
REMARK                         _______ _______ _______ _____ _____    ______ ____
ROOT
ATOM     11  C5  <O> A   1       1.283  -0.952   1.360  0.00  0.00    +0.000 C 
ATOM     12  C6  <O> A   1       2.267  -1.753   0.492  0.00  0.00    +0.000 C 
ATOM     13  C7  <O> A   1       3.099  -2.705   1.353  0.00  0.00    +0.000 C 
ATOM     14  C8  <O> A   1       4.230  -3.373   0.551  0.00  0.00    +0.000 C 
ATOM     15  F1  <O> A   1       5.055  -2.394   0.032  0.00  0.00    +0.000 F 
ATOM     16  C9  <O> A   1       5.057  -4.305   1.451  0.00  0.00    +0.000 C 
ATOM     17  C10 <O> A   1       4.177  -5.332   2.179  0.00  0.00    +0.000 C 
ATOM     18  C11 <O> A   1       3.021  -4.658   2.931  0.00  0.00    +0.000 C 
ATOM     20  C12 <O> A   1       2.175  -3.769   1.998  0.00  0.00    +0.000 C 
ATOM     21  F2  <O> A   1       1.719  -4.577   0.976  0.00  0.00    +0.000 F 
ATOM     22  C13 <O> A   1       0.948  -3.161   2.664  0.00  0.00    +0.000 A 
ATOM     23  C14 <O> A   1       0.213  -3.902   3.618  0.00  0.00    +0.000 A 
ATOM     25  C15 <O> A   1      -0.912  -3.349   4.244  0.00  0.00    +0.000 A 
ATOM     26  C16 <O> A   1      -1.320  -2.049   3.931  0.00  0.00    +0.000 A 
ATOM     28  C17 <O> A   1      -0.595  -1.290   3.003  0.00  0.00    +0.000 A 
ATOM     30  C18 <O> A   1       0.555  -1.821   2.387  0.00  0.00    +0.000 A 
ENDROOT
BRANCH  18  19
ATOM     19  O4  <O> A   1       3.538  -3.880   3.940  0.00  0.00    +0.000 OA
ATOM     36  H22 <O> A   1       2.814  -3.450   4.420  0.00  0.00    +0.000 HD
ENDBRANCH  18  19
BRANCH  23  24
ATOM     24  O5  <O> A   1       0.592  -5.105   3.911  0.00  0.00    +0.000 OA
ATOM     37  H23 <O> A   1      -0.007  -5.479   4.576  0.00  0.00    +0.000 HD
ENDBRANCH  23  24
BRANCH  26  27
ATOM     27  O6  <O> A   1      -2.368  -1.546   4.501  0.00  0.00    +0.000 OA
ATOM     38  H24 <O> A   1      -2.511  -0.643   4.175  0.00  0.00    +0.000 HD
ENDBRANCH  26  27
BRANCH  28  29
ATOM     29  O7  <O> A   1      -0.991  -0.093   2.714  0.00  0.00    +0.000 OA
ATOM     39  H25 <O> A   1      -0.389   0.297   2.062  0.00  0.00    +0.000 HD
ENDBRANCH  28  29
BRANCH  11   8
ATOM      8  S1  <O> A   1       0.079  -0.198   0.301  0.00  0.00    +0.000 S 
BRANCH   8   7
ATOM      4  N1  <O> A   1       1.030   1.528  -3.610  0.00  0.00    +0.000 NA
ATOM      5  C3  <O> A   1       0.068   0.420  -3.629  0.00  0.00    +0.000 C 
ATOM      6  C4  <O> A   1      -0.469   0.144  -2.208  0.00  0.00    +0.000 C 
ATOM      7  N2  <O> A   1       0.689  -0.077  -1.230  0.00  0.00    +0.000 NA
ATOM     31  C19 <O> A   1       1.696   1.075  -1.271  0.00  0.00    +0.000 C 
ATOM     32  C20 <O> A   1       2.165   1.298  -2.717  0.00  0.00    +0.000 C 
BRANCH   4   2
ATOM      1  C1  <O> A   1       0.472   1.319  -5.975  0.00  0.00    +0.000 C 
ATOM      2  C2  <O> A   1       1.541   1.722  -4.970  0.00  0.00    +0.000 C 
BRANCH   2   3
ATOM      3  O1  <O> A   1       2.707   0.912  -5.162  0.00  0.00    +0.000 OA
ATOM     33  H5  <O> A   1       3.389   1.169  -4.521  0.00  0.00    +0.000 HD
ENDBRANCH   2   3
ENDBRANCH   4   2
ENDBRANCH   8   7
BRANCH   8   9
ATOM      9  O2  <O> A   1      -1.272  -1.109   0.278  0.00  0.00    +0.000 OA
ATOM     34  H10 <O> A   1      -1.060  -1.994  -0.054  0.00  0.00    +0.000 HD
ENDBRANCH   8   9
BRANCH   8  10
ATOM     10  O3  <O> A   1      -0.279   1.291   0.862  0.00  0.00    +0.000 OA
ATOM     35  H11 <O> A   1       0.525   1.834   0.875  0.00  0.00    +0.000 HD
ENDBRANCH   8  10
ENDBRANCH  11   8
TORSDOF 10
